@<TRIPOS>MOLECULE
NS11
 16 17 0 0 0
SMALL
GASTEIGER

@<TRIPOS>ATOM
      1 C           1.3638   -0.2105   -0.2122 C.ar    1  NS11       -0.0464
      2 H           2.4293   -0.3840   -0.3509 H       1  NS11        0.0626
      3 C           0.8706    1.0991   -0.1426 C.ar    1  NS11        0.0762
      4 C          -0.5017    1.3124    0.0402 C.ar    1  NS11       -0.0464
      5 H          -0.8924    2.3264    0.0969 H       1  NS11        0.0626
      6 C          -1.3729    0.2254    0.1412 C.ar    1  NS11       -0.0609
      7 H          -2.4367    0.3994    0.2755 H       1  NS11        0.0618
      8 C          -0.8770   -1.0768    0.0646 C.ar    1  NS11       -0.0617
      9 H          -1.5562   -1.9212    0.1379 H       1  NS11        0.0618
     10 C           0.4903   -1.2948   -0.1085 C.ar    1  NS11       -0.0609
     11 H           0.8804   -2.3068   -0.1675 H       1  NS11        0.0618
     12 C           1.8130    2.2757   -0.2764 C.2     1  NS11        0.4264
     13 N           3.1513    2.1626   -0.4769 N.2     1  NS11        0.1010
     14 N           3.5967    3.4378   -0.5711 N.pl3   1  NS11        0.1458
     15 N           2.5585    4.2859   -0.4153 N.2     1  NS11        0.1070
     16 N           1.4229    3.5752   -0.2220 N.2     1  NS11        0.1095
@<TRIPOS>BOND
     1    13    14    1
     2    13    12    2
     3    14    15    1
     4     2     1    1
     5    11    10    1
     6     1    10   ar
     7     1     3   ar
     8    10     8   ar
     9    12     3    1
    10    12    16    1
    11     8     9    1
    12     8     6   ar
    13     3     4   ar
    14     6     7    1
    15     6     4   ar
    16     4     5    1
    17    15    16    2

